Modified 4 Bus/6 Node with PV/4busDYBal_EXP_VOLTAGES.CSV
Bus, BasekV, Node1, Magnitude1, Angle1, pu1, Node2, Magnitude2, Angle2, pu2, Node3, Magnitude3, Angle3, pu3
"SOURCEBUS", 12.47, 1,    7199.32,    0.0,   0.99997, 2,    7199.33, -120.0,   0.99997, 3,    7199.32,  120.0,   0.99997
"N2", 12.47, 1,    7096.05,   -0.3,   0.98562, 2,       7122, -120.4,   0.98923, 3,    7110.27,  119.5,    0.9876
"N3", 4.16, 1,    2220.08,  -34.3,   0.92435, 2,    2241.12, -153.8,   0.93311, 3,    2234.38,   85.9,    0.9303
"N4", 4.16, 1,    1832.94,  -40.7,   0.76316, 2,    2011.22, -159.5,   0.83739, 3,    1917.87,   79.5,   0.79852
"N5", 4.16, 1,    1817.69,  -41.1,   0.75681, 2,    2002.42, -159.7,   0.83373, 3,    1905.52,   79.2,   0.79338
"N6", 4.16, 1,     1802.5,  -41.4,   0.75049, 2,    1993.67, -160.0,   0.83008, 3,    1893.21,   78.9,   0.78825
